IDF file: MainBoard.bdf
Version: 3.0
Input file: C:/Users/Liber/Desktop/SmartRing-V1.03/version3/MainBoard.brd
Output file: C:/Users/Liber/Desktop/SmartRing-V1.03/version3/MainBoard.brd
idf_in complete.
