IDF file: C:/Users/Liber/Desktop/SmartRing-V1.03/version3/MainBoard.bdf
Version: 3.0
Input file: GPRS.brd
Output file: GPRS.brd
idf_in complete.
